Version 4
SHEET 1 880 680
WIRE 352 0 352 -16
WIRE 304 48 256 48
WIRE 112 80 112 64
WIRE 304 80 256 80
WIRE 448 96 416 96
WIRE 224 128 160 128
WIRE 304 128 224 128
WIRE 224 160 160 160
WIRE 304 160 224 160
WIRE 64 192 16 192
WIRE 224 192 160 192
WIRE 304 192 224 192
WIRE 224 224 160 224
WIRE 304 224 224 224
WIRE 112 288 112 272
WIRE 352 288 352 272
FLAG 352 -16 V+
FLAG 112 64 V+
FLAG 256 80 V1
FLAG 256 48 V2
FLAG 16 192 Iin
FLAG 224 224 Vbn
FLAG 224 192 Vcn
FLAG 224 160 Vcp
FLAG 224 128 Vbp
FLAG 448 96 Vout
FLAG 112 288 V-
FLAG 352 288 V-
SYMBOL FCDAmp 336 160 R0
SYMATTR InstName X2
SYMBOL Bias 96 160 R0
SYMATTR InstName X1
