Version 4
SHEET 1 1252 844
WIRE -560 -96 -560 -128
WIRE -448 -96 -448 -128
WIRE 176 -32 176 -48
WIRE -560 16 -560 -16
WIRE -448 16 -448 -16
WIRE 448 32 448 0
WIRE 976 64 976 32
WIRE 496 80 496 48
WIRE 176 96 176 48
WIRE 400 96 176 96
WIRE 1024 112 1024 80
WIRE 576 128 544 128
WIRE 928 128 576 128
WIRE 176 144 176 96
WIRE 400 160 368 160
WIRE 1248 160 1072 160
WIRE 928 192 768 192
WIRE 448 240 448 208
WIRE 176 256 176 208
WIRE -576 272 -576 240
WIRE -464 272 -464 240
WIRE 976 288 976 240
WIRE 720 320 720 304
WIRE 368 336 368 160
WIRE 416 336 368 336
WIRE 576 336 576 128
WIRE 576 336 496 336
WIRE 688 352 656 352
WIRE -576 368 -576 352
WIRE -576 368 -624 368
WIRE -624 384 -624 368
WIRE -576 384 -576 368
WIRE -464 384 -464 352
WIRE 688 384 656 384
WIRE 768 384 768 192
WIRE 368 400 368 336
WIRE 688 416 656 416
WIRE 720 464 720 448
WIRE 368 512 368 480
WIRE -528 624 -528 592
WIRE -416 624 -416 592
WIRE -304 624 -304 592
WIRE -528 736 -528 704
WIRE -416 736 -416 704
WIRE -304 736 -304 704
FLAG 656 416 b0
FLAG 656 384 b1
FLAG 656 352 b2
FLAG 176 256 V+
FLAG 448 0 V+
FLAG 976 32 V+
FLAG 448 240 V-
FLAG 976 288 V-
FLAG 176 -48 Vds
FLAG 368 512 V-
FLAG 496 48 Iin1
FLAG 1024 80 Iin2
FLAG -576 384 V-
FLAG -464 384 V-
FLAG -528 736 V-
FLAG -416 736 V-
FLAG -304 736 V-
FLAG -576 240 V+
FLAG -560 -128 V+
FLAG -448 -128 V+
FLAG -560 16 Iin1
FLAG -448 16 Iin2
FLAG -464 240 Vds
FLAG -528 592 b0
FLAG -416 592 b1
FLAG -304 592 b2
FLAG -624 384 0
FLAG 720 304 V+
FLAG 720 464 V-
SYMBOL DAC 704 384 R0
SYMATTR InstName X1
SYMBOL res 160 -48 R0
SYMATTR InstName R1
SYMATTR Value 100k
SYMBOL diode 160 144 R0
SYMATTR InstName D1
SYMBOL res 512 320 R90
WINDOW 0 0 56 VBottom 2
WINDOW 3 32 56 VTop 2
SYMATTR InstName R2
SYMATTR Value 20k
SYMBOL Opamp 368 128 R0
SYMATTR InstName X2
SYMBOL Opamp 896 160 R0
SYMATTR InstName X3
SYMBOL res 352 384 R0
SYMATTR InstName R3
SYMATTR Value 10k
SYMBOL voltage -576 256 R0
WINDOW 123 0 0 Left 2
WINDOW 39 0 0 Left 2
SYMATTR InstName V1
SYMATTR Value 5
SYMBOL voltage -464 256 R0
WINDOW 123 0 0 Left 2
WINDOW 39 0 0 Left 2
SYMATTR InstName V2
SYMATTR Value 0
SYMBOL voltage -528 608 R0
WINDOW 123 0 0 Left 2
WINDOW 39 0 0 Left 2
SYMATTR InstName V3
SYMATTR Value 5
SYMBOL voltage -416 608 R0
WINDOW 123 0 0 Left 2
WINDOW 39 0 0 Left 2
SYMATTR InstName V4
SYMATTR Value 0
SYMBOL voltage -304 608 R0
WINDOW 123 0 0 Left 2
WINDOW 39 0 0 Left 2
SYMATTR InstName V5
SYMATTR Value 0
SYMBOL current -560 -96 R0
WINDOW 123 0 0 Left 2
WINDOW 39 0 0 Left 2
SYMATTR InstName I1
SYMATTR Value 10µA
SYMBOL current -448 -96 R0
WINDOW 123 0 0 Left 2
WINDOW 39 0 0 Left 2
SYMATTR InstName I2
SYMATTR Value 10µA
TEXT -616 808 Left 2 !.lib engr3426.sub
TEXT -618 828 Left 2 !.tran 1ms
