Version 4
SHEET 1 1984 848
WIRE 720 -224 720 -240
WIRE 1440 -112 1376 -112
WIRE -560 -96 -560 -128
WIRE -448 -96 -448 -128
WIRE 1376 -96 1376 -112
WIRE 1440 -96 1440 -112
WIRE 720 -80 720 -144
WIRE 736 -80 736 -96
WIRE 704 -48 672 -48
WIRE 176 -32 176 -48
WIRE 704 -16 672 -16
WIRE 832 -16 784 -16
WIRE 1184 -16 1184 -32
WIRE 976 0 976 -32
WIRE 1376 0 1376 -32
WIRE 1440 0 1440 -16
WIRE 1440 0 1376 0
WIRE -560 16 -560 -16
WIRE -448 16 -448 -16
WIRE 704 16 672 16
WIRE 448 32 448 0
WIRE 1440 32 1440 0
WIRE 1488 32 1440 32
WIRE 1024 48 1024 16
WIRE 736 64 736 48
WIRE 832 64 832 -16
WIRE 928 64 832 64
WIRE 496 80 496 48
WIRE 176 96 176 48
WIRE 400 96 176 96
WIRE 1184 96 1184 64
WIRE 1184 96 1072 96
WIRE 1376 96 1184 96
WIRE 1456 96 1440 96
WIRE 576 128 544 128
WIRE 928 128 576 128
WIRE 176 144 176 96
WIRE 400 160 368 160
WIRE 1440 176 1440 160
WIRE 1456 176 1456 96
WIRE 1456 176 1440 176
WIRE 976 224 976 176
WIRE 448 240 448 208
WIRE 176 256 176 208
WIRE -576 272 -576 240
WIRE 368 336 368 160
WIRE 416 336 368 336
WIRE 576 336 576 128
WIRE 576 336 496 336
WIRE -576 368 -576 352
WIRE -576 368 -624 368
WIRE -624 384 -624 368
WIRE -576 384 -576 368
WIRE 368 400 368 336
WIRE 368 512 368 480
WIRE -528 624 -528 592
WIRE -416 624 -416 592
WIRE -304 624 -304 592
WIRE -528 736 -528 704
WIRE -416 736 -416 704
WIRE -304 736 -304 704
FLAG 672 16 b0
FLAG 672 -16 b1
FLAG 672 -48 b2
FLAG 176 256 V+
FLAG 448 0 V+
FLAG 976 -32 V+
FLAG 448 240 V-
FLAG 976 224 V-
FLAG 176 -48 Vds
FLAG 368 512 V-
FLAG 496 48 Iin1
FLAG 1024 16 Iin2
FLAG -576 384 V-
FLAG -528 736 V-
FLAG -416 736 V-
FLAG -304 736 V-
FLAG -576 240 V+
FLAG -560 -128 V+
FLAG -448 -128 V+
FLAG -560 16 Iin1
FLAG -448 16 Iin2
FLAG -528 592 b0
FLAG -416 592 b1
FLAG -304 592 b2
FLAG -624 384 0
FLAG 736 -96 V+
FLAG 736 64 V-
FLAG 720 -240 V+
FLAG 1440 -112 V+
FLAG 1440 176 V-
FLAG 1488 32 Vds
FLAG 1184 -32 V+
SYMBOL DAC 720 -16 R0
SYMATTR InstName X1
SYMBOL res 160 -48 R0
SYMATTR InstName R1
SYMATTR Value 100k
SYMBOL diode 160 144 R0
SYMATTR InstName D1
SYMBOL res 512 320 R90
WINDOW 0 0 56 VBottom 2
WINDOW 3 32 56 VTop 2
SYMATTR InstName R2
SYMATTR Value 200k
SYMBOL Opamp 368 128 R0
SYMATTR InstName X2
SYMBOL Opamp 896 96 R0
SYMATTR InstName X3
SYMBOL res 352 384 R0
SYMATTR InstName R3
SYMATTR Value 200k
SYMBOL voltage -576 256 R0
WINDOW 123 0 0 Left 2
WINDOW 39 0 0 Left 2
SYMATTR InstName V1
SYMATTR Value 5
SYMBOL voltage -528 608 R0
WINDOW 123 0 0 Left 2
WINDOW 39 0 0 Left 2
SYMATTR InstName V3
SYMATTR Value 5
SYMBOL voltage -416 608 R0
WINDOW 123 0 0 Left 2
WINDOW 39 0 0 Left 2
SYMATTR InstName V4
SYMATTR Value 5
SYMBOL voltage -304 608 R0
WINDOW 123 0 0 Left 2
WINDOW 39 0 0 Left 2
SYMATTR InstName V5
SYMATTR Value 0
SYMBOL current -560 -96 R0
WINDOW 123 0 0 Left 2
WINDOW 39 0 0 Left 2
SYMATTR InstName I1
SYMATTR Value 100µA
SYMBOL current -448 -96 R0
WINDOW 123 0 0 Left 2
WINDOW 39 0 0 Left 2
SYMATTR InstName I2
SYMATTR Value 100µA
SYMBOL res 704 -240 R0
SYMATTR InstName R4
SYMATTR Value 50k
SYMBOL cktsym\\nmos4 1440 96 R0
SYMATTR InstName M1
SYMATTR Value2 l=1um w=10m
SYMBOL current 1440 -96 R0
WINDOW 123 0 0 Left 2
WINDOW 39 0 0 Left 2
SYMATTR InstName I3
SYMATTR Value PULSE(0 5 1us 10us 1us 0ms 11us 2)
SYMBOL diode 1392 -32 R180
WINDOW 0 24 64 Left 2
WINDOW 3 24 0 Left 2
SYMATTR InstName D2
SYMBOL res 1168 -32 R0
SYMATTR InstName R5
SYMATTR Value 1000K
TEXT -616 808 Left 2 !.lib engr3426.sub
TEXT -616 832 Left 2 !.tran 20us
