Version 4
SHEET 1 2444 848
WIRE -64 -384 -80 -384
WIRE 512 -384 496 -384
WIRE 1040 -384 1024 -384
WIRE -64 -368 -64 -384
WIRE 496 -368 496 -384
WIRE 1024 -368 1024 -384
WIRE -80 -304 -80 -384
WIRE -64 -304 -80 -304
WIRE 16 -304 0 -304
WIRE 416 -304 16 -304
WIRE 432 -304 416 -304
WIRE 512 -304 512 -384
WIRE 512 -304 496 -304
WIRE 1040 -304 1040 -384
WIRE 1040 -304 1024 -304
WIRE 416 -288 416 -304
WIRE 960 -288 960 -304
WIRE 960 -288 416 -288
WIRE 720 -224 720 -240
WIRE -64 -208 -64 -240
WIRE 16 -208 16 -304
WIRE 16 -208 -64 -208
WIRE -64 -192 -64 -208
WIRE 1664 -176 1664 -192
WIRE 1520 -128 1456 -128
WIRE 1456 -112 1456 -128
WIRE 1520 -112 1520 -128
WIRE -64 -96 -64 -112
WIRE 720 -80 720 -144
WIRE 736 -80 736 -96
WIRE 1664 -80 1664 -96
WIRE 704 -48 672 -48
WIRE 176 -32 176 -48
WIRE 704 -16 672 -16
WIRE 832 -16 784 -16
WIRE 1456 -16 1456 -48
WIRE 1520 -16 1520 -32
WIRE 1520 -16 1456 -16
WIRE 976 0 976 -32
WIRE 704 16 672 16
WIRE 448 32 448 0
WIRE 1520 32 1520 -16
WIRE 1568 32 1520 32
WIRE 1024 48 1024 -240
WIRE 736 64 736 48
WIRE 832 64 832 -16
WIRE 928 64 832 64
WIRE 1264 64 1264 48
WIRE 496 80 496 -240
WIRE 176 96 176 48
WIRE 400 96 176 96
WIRE 1232 96 1072 96
WIRE 1472 112 1328 112
WIRE 576 128 544 128
WIRE 928 128 576 128
WIRE 1232 128 1136 128
WIRE 1520 128 1520 112
WIRE 176 144 176 96
WIRE 400 160 368 160
WIRE 1520 160 1520 128
WIRE 1264 176 1264 160
WIRE 976 224 976 176
WIRE 448 240 448 208
WIRE 1136 240 1136 128
WIRE 176 256 176 208
WIRE -576 272 -576 240
WIRE 368 336 368 160
WIRE 416 336 368 336
WIRE 576 336 576 128
WIRE 576 336 496 336
WIRE -576 368 -576 352
WIRE -576 368 -624 368
WIRE -624 384 -624 368
WIRE -576 384 -576 368
WIRE 368 400 368 336
WIRE 368 512 368 480
WIRE -528 624 -528 592
WIRE -416 624 -416 592
WIRE -304 624 -304 592
WIRE -528 736 -528 704
WIRE -416 736 -416 704
WIRE -304 736 -304 704
FLAG 672 16 b0
FLAG 672 -16 b1
FLAG 672 -48 b2
FLAG 176 256 V+
FLAG 448 0 V+
FLAG 976 -32 V+
FLAG 448 240 V-
FLAG 976 224 V-
FLAG 176 -48 Vds
FLAG 368 512 V-
FLAG -576 384 V-
FLAG -528 736 V-
FLAG -416 736 V-
FLAG -304 736 V-
FLAG -576 240 V+
FLAG -528 592 b0
FLAG -416 592 b1
FLAG -304 592 b2
FLAG -624 384 0
FLAG 736 -96 V+
FLAG 736 64 V-
FLAG 720 -240 V+
FLAG 1520 -128 V+
FLAG 1520 160 V-
FLAG 1568 32 Vds
FLAG 1136 240 RST
FLAG 1264 48 V+
FLAG 1264 176 V-
FLAG 1664 -192 RST
FLAG 1664 -80 V-
FLAG -64 -96 V-
FLAG -80 -384 V+
FLAG 496 -384 V+
FLAG 1024 -384 V+
SYMBOL DAC 720 -16 R0
SYMATTR InstName X1
SYMBOL res 160 -48 R0
SYMATTR InstName R1
SYMATTR Value 100k
SYMBOL diode 160 144 R0
SYMATTR InstName D1
SYMBOL res 512 320 R90
WINDOW 0 0 56 VBottom 2
WINDOW 3 32 56 VTop 2
SYMATTR InstName R2
SYMATTR Value 200k
SYMBOL Opamp 368 128 R0
SYMATTR InstName X2
SYMBOL Opamp 896 96 R0
SYMATTR InstName X3
SYMBOL res 352 384 R0
SYMATTR InstName R3
SYMATTR Value 200k
SYMBOL voltage -576 256 R0
WINDOW 123 0 0 Left 2
WINDOW 39 0 0 Left 2
SYMATTR InstName V1
SYMATTR Value 5
SYMBOL voltage -528 608 R0
WINDOW 123 0 0 Left 2
WINDOW 39 0 0 Left 2
SYMATTR InstName V3
SYMATTR Value 0
SYMBOL voltage -416 608 R0
WINDOW 123 0 0 Left 2
WINDOW 39 0 0 Left 2
SYMATTR InstName V4
SYMATTR Value 0
SYMBOL voltage -304 608 R0
WINDOW 123 0 0 Left 2
WINDOW 39 0 0 Left 2
SYMATTR InstName V5
SYMATTR Value 5
SYMBOL res 704 -240 R0
SYMATTR InstName R4
SYMATTR Value 50k
SYMBOL current 1520 -112 R0
WINDOW 123 0 0 Left 2
WINDOW 39 0 0 Left 2
SYMATTR InstName I3
SYMATTR Value PULSE(0 10 1ms 10ms 1ms 0ms 11ms 2)
SYMBOL diode 1472 -48 R180
WINDOW 0 24 64 Left 2
WINDOW 3 24 0 Left 2
SYMATTR InstName D2
SYMBOL nmos 1472 32 R0
SYMATTR InstName M2
SYMATTR Value FDS2734
SYMBOL 2-OR 1248 144 R0
SYMATTR InstName X5
SYMBOL voltage 1664 -192 R0
WINDOW 123 0 0 Left 2
WINDOW 39 0 0 Left 2
SYMATTR InstName V2
SYMATTR Value PULSE(5 0 1ms 100ns 100ns 11ms 20ms 1)
SYMBOL cktsym\\pmos4 496 -304 R0
SYMATTR InstName M1
SYMATTR Value2 l=1.8um w=36um
SYMBOL cktsym\\pmos4 1024 -304 R0
SYMATTR InstName M3
SYMATTR Value2 l=1.8um w=36um
SYMBOL res -80 -208 R0
SYMATTR InstName R5
SYMATTR Value 50k
SYMBOL cktsym\\pmos4 -64 -304 R180
SYMATTR InstName M4
SYMATTR Value2 l=1.8um w=36um
TEXT -616 808 Left 2 !.lib engr3426.sub
TEXT -616 832 Left 2 !.tran 30ms
