Version 4
SHEET 1 2444 848
WIRE -64 -384 -80 -384
WIRE 512 -384 496 -384
WIRE 1040 -384 1024 -384
WIRE -64 -368 -64 -384
WIRE 496 -368 496 -384
WIRE 1024 -368 1024 -384
WIRE -80 -304 -80 -384
WIRE -64 -304 -80 -304
WIRE 16 -304 0 -304
WIRE 416 -304 16 -304
WIRE 432 -304 416 -304
WIRE 512 -304 512 -384
WIRE 512 -304 496 -304
WIRE 1040 -304 1040 -384
WIRE 1040 -304 1024 -304
WIRE 416 -288 416 -304
WIRE 960 -288 960 -304
WIRE 960 -288 416 -288
WIRE 768 -240 720 -240
WIRE 880 -240 848 -240
WIRE 720 -224 720 -240
WIRE -64 -208 -64 -240
WIRE 16 -208 16 -304
WIRE 16 -208 -64 -208
WIRE -64 -176 -64 -208
WIRE 720 -80 720 -128
WIRE 736 -80 736 -96
WIRE 704 -48 672 -48
WIRE 848 -48 800 -48
WIRE -64 -32 -64 -80
WIRE 176 -32 176 -48
WIRE 848 -32 848 -48
WIRE 704 -16 672 -16
WIRE 800 -16 800 -48
WIRE 800 -16 784 -16
WIRE 976 0 976 -32
WIRE 704 16 672 16
WIRE 448 32 448 0
WIRE 1024 48 1024 -240
WIRE 736 64 736 48
WIRE 848 64 848 48
WIRE 928 64 848 64
WIRE 1264 64 1264 48
WIRE -64 80 -64 48
WIRE 496 80 496 -240
WIRE 176 96 176 48
WIRE 400 96 176 96
WIRE 1104 96 1072 96
WIRE 1232 96 1200 96
WIRE 1408 112 1328 112
WIRE 576 128 544 128
WIRE 688 128 576 128
WIRE 928 128 752 128
WIRE 1232 128 1136 128
WIRE 176 144 176 96
WIRE 400 160 368 160
WIRE 1264 176 1264 160
WIRE 368 208 368 160
WIRE 976 224 976 176
WIRE 448 240 448 208
WIRE 1136 240 1136 128
WIRE 176 256 176 208
WIRE 368 336 368 304
WIRE 416 336 368 336
WIRE 576 336 576 128
WIRE 576 336 496 336
WIRE 368 400 368 336
WIRE 928 448 736 448
WIRE 368 512 368 480
FLAG 672 16 1
IOPIN 672 16 In
FLAG 672 -16 2
IOPIN 672 -16 In
FLAG 672 -48 3
IOPIN 672 -48 In
FLAG 176 256 V+
FLAG 448 0 V+
FLAG 976 -32 V+
FLAG 448 240 V-
FLAG 976 224 V-
FLAG 176 -48 6
IOPIN 176 -48 In
FLAG 368 512 V-
FLAG 736 -96 V+
FLAG 736 64 V-
FLAG 1136 240 4
IOPIN 1136 240 In
FLAG 1264 48 V+
FLAG 1264 176 V-
FLAG -80 -384 V+
FLAG 496 -384 V+
FLAG 1024 -384 V+
FLAG 688 128 7
IOPIN 688 128 In
FLAG 752 128 8
IOPIN 752 128 In
FLAG 736 448 17
IOPIN 736 448 In
FLAG 928 448 16
IOPIN 928 448 In
FLAG 1408 112 13
IOPIN 1408 112 In
FLAG 880 -240 V+
FLAG 720 -224 39
IOPIN 720 -224 In
FLAG -64 80 V-
FLAG -64 -80 22
IOPIN -64 -80 In
FLAG 1200 96 12
IOPIN 1200 96 In
FLAG 1104 96 11
IOPIN 1104 96 In
FLAG 368 208 27
IOPIN 368 208 In
FLAG 368 304 28
IOPIN 368 304 In
FLAG 720 -128 40
IOPIN 720 -128 In
FLAG -64 -176 21
IOPIN -64 -176 In
FLAG 848 -32 10
IOPIN 848 -32 In
FLAG 848 48 9
IOPIN 848 48 In
SYMBOL DAC 720 -16 R0
SYMATTR InstName X1
SYMBOL res 160 -48 R0
SYMATTR InstName R1
SYMATTR Value 100k
SYMBOL diode 160 144 R0
SYMATTR InstName D1
SYMBOL res 512 320 R90
WINDOW 0 0 56 VBottom 2
WINDOW 3 32 56 VTop 2
SYMATTR InstName R2
SYMATTR Value 200k
SYMBOL Opamp 368 128 R0
SYMATTR InstName X2
SYMBOL Opamp 896 96 R0
SYMATTR InstName X3
SYMBOL res 352 384 R0
SYMATTR InstName R3
SYMATTR Value 200k
SYMBOL 2-OR 1248 144 R0
SYMATTR InstName X5
SYMBOL cktsym\\pmos4 496 -304 R0
SYMATTR InstName M1
SYMATTR Value2 l=1.8um w=36um
SYMBOL cktsym\\pmos4 1024 -304 R0
SYMATTR InstName M3
SYMATTR Value2 l=1.8um w=36um
SYMBOL cktsym\\pmos4 -64 -304 R180
SYMATTR InstName M4
SYMATTR Value2 l=1.8um w=36um
SYMBOL res 864 -256 R90
WINDOW 0 0 56 VBottom 2
WINDOW 3 32 56 VTop 2
SYMATTR InstName R6
SYMATTR Value 50k
SYMBOL res -80 -48 R0
SYMATTR InstName R4
SYMATTR Value 50k
